Version 4
SHEET 1 1224 824
WIRE 784 0 -112 0
WIRE -112 64 -112 0
WIRE 64 64 -112 64
WIRE 160 64 144 64
WIRE 320 64 160 64
WIRE 672 64 320 64
WIRE 896 64 672 64
WIRE -1328 128 -1536 128
WIRE -1088 128 -1248 128
WIRE -816 128 -896 128
WIRE -592 128 -816 128
WIRE -112 128 -112 64
WIRE -112 128 -512 128
WIRE -816 144 -816 128
WIRE -112 144 -112 128
WIRE 160 144 160 64
WIRE 320 144 320 64
WIRE -1088 224 -1168 224
WIRE -816 224 -816 208
WIRE -816 224 -896 224
WIRE -816 272 -816 224
WIRE -816 272 -928 272
WIRE -112 272 -112 224
WIRE -112 272 -816 272
WIRE 160 272 160 224
WIRE 160 272 -112 272
WIRE 560 272 160 272
WIRE 896 272 560 272
WIRE -48 320 -736 320
WIRE 0 320 -48 320
WIRE -384 368 -576 368
WIRE -304 368 -384 368
WIRE -224 368 -304 368
WIRE -48 368 -48 320
WIRE -48 368 -128 368
WIRE 80 368 -48 368
WIRE 320 368 320 224
WIRE 320 368 80 368
WIRE 448 368 320 368
WIRE 448 400 448 368
WIRE 560 400 560 272
WIRE 672 400 672 64
WIRE 784 400 784 0
WIRE -576 416 -576 368
WIRE -384 416 -384 368
WIRE -304 416 -304 368
WIRE 320 416 320 368
WIRE 320 416 272 416
WIRE -928 432 -928 272
WIRE -864 432 -928 432
WIRE -736 448 -736 320
WIRE -736 448 -800 448
WIRE -1536 464 -1536 128
WIRE -48 480 -48 368
WIRE -864 496 -976 496
WIRE 320 496 320 416
WIRE 320 496 272 496
WIRE 448 496 448 480
WIRE 496 496 448 496
WIRE 560 496 560 480
WIRE 608 496 560 496
WIRE 672 496 672 480
WIRE 720 496 672 496
WIRE 784 496 784 480
WIRE 832 496 784 496
WIRE -976 512 -976 496
WIRE 80 512 80 368
WIRE 448 512 448 496
WIRE 560 512 560 496
WIRE 672 512 672 496
WIRE 784 512 784 496
WIRE -864 528 -896 528
WIRE -304 528 -304 496
WIRE -176 528 -176 432
WIRE -176 528 -304 528
WIRE -576 544 -576 480
WIRE -496 544 -576 544
WIRE -384 544 -384 480
WIRE -384 544 -416 544
WIRE -176 544 -176 528
WIRE -576 592 -576 544
WIRE -384 592 -384 544
WIRE 320 592 320 496
WIRE 320 592 272 592
WIRE 160 608 160 272
WIRE 320 608 320 592
WIRE -1536 704 -1536 544
WIRE -1168 704 -1168 224
WIRE -1168 704 -1536 704
WIRE -976 704 -976 592
WIRE -976 704 -1168 704
WIRE -896 704 -896 528
WIRE -896 704 -976 704
WIRE -576 704 -576 656
WIRE -576 704 -896 704
WIRE -384 704 -384 656
WIRE -384 704 -576 704
WIRE -176 704 -176 672
WIRE -176 704 -384 704
WIRE -48 704 -48 544
WIRE -48 704 -176 704
WIRE 80 704 80 576
WIRE 80 704 -48 704
WIRE 448 704 448 592
WIRE 448 704 80 704
WIRE 560 704 560 592
WIRE 560 704 448 704
WIRE 672 704 672 592
WIRE 672 704 560 704
WIRE 784 704 784 592
WIRE 784 704 672 704
WIRE -576 736 -576 704
FLAG 896 64 y
FLAG 896 272 x
FLAG 320 608 m2
FLAG -576 736 0
FLAG 0 320 30V
SYMBOL voltage -112 128 R0
WINDOW 123 0 0 Left 0
WINDOW 39 0 0 Left 0
SYMATTR InstName V1
SYMATTR Value SINE(0 25.2 50)
SYMBOL res 160 48 R90
WINDOW 0 0 56 VBottom 2
WINDOW 3 32 56 VTop 2
SYMATTR InstName R1
SYMATTR Value 1k
SYMBOL res 176 240 R180
WINDOW 0 36 76 Left 2
WINDOW 3 36 40 Left 2
SYMATTR InstName R2
SYMATTR Value 330
SYMBOL res 336 240 R180
WINDOW 0 36 76 Left 2
WINDOW 3 36 40 Left 2
SYMATTR InstName R3
SYMATTR Value 1k
SYMBOL voltage -400 544 R90
WINDOW 123 0 0 Left 0
WINDOW 39 0 0 Left 0
SYMATTR InstName V3
SYMATTR Value SINE(0 25.5 50)
SYMBOL diode -368 480 R180
WINDOW 0 24 64 Left 2
WINDOW 3 24 0 Left 2
SYMATTR InstName D1
SYMATTR Value 1N4001
SYMBOL zener -160 608 R180
WINDOW 0 24 64 Left 2
WINDOW 3 54 42 Left 2
SYMATTR InstName D3
SYMATTR Value BZX384B27
SYMATTR Description Diode
SYMATTR Type diode
SYMBOL res -320 400 R0
SYMATTR InstName R4
SYMATTR Value 47k
SYMBOL cap -64 480 R0
SYMATTR InstName C3
SYMATTR Value 100µ
SYMBOL cap 272 480 R90
WINDOW 0 0 32 VBottom 2
WINDOW 3 32 32 VTop 2
SYMATTR InstName C2
SYMATTR Value 10µ
SYMBOL polcap -592 416 R0
WINDOW 3 24 56 Left 2
SYMATTR Value 33µ
SYMATTR InstName C5
SYMATTR Description Capacitor
SYMATTR Type cap
SYMATTR SpiceLine V=35 Irms=57m Rser=0.647354 Lser=4.42785n mfg="Würth Elektronik" pn="865230545004 WCAP-AS5H 6,3x7,7" type="Al electrolytic"
SYMBOL diode -368 656 R180
WINDOW 0 24 64 Left 2
WINDOW 3 24 0 Left 2
SYMATTR InstName D2
SYMATTR Value 1N4001
SYMBOL _PERSONAL\\npn\\TIP122 -224 432 R270
SYMATTR InstName U1
SYMBOL polcap -592 592 R0
WINDOW 3 24 56 Left 2
SYMATTR Value 33µ
SYMATTR InstName C1
SYMATTR Description Capacitor
SYMATTR Type cap
SYMATTR SpiceLine V=35 Irms=57m Rser=0.647354 Lser=4.42785n mfg="Würth Elektronik" pn="865230545004 WCAP-AS5H 6,3x7,7" type="Al electrolytic"
SYMBOL zener 272 400 R90
WINDOW 0 0 32 VBottom 2
WINDOW 3 32 32 VTop 2
SYMATTR InstName D4
SYMATTR Value BZX384B6V2
SYMATTR Description Diode
SYMATTR Type diode
SYMBOL zener 208 608 R270
WINDOW 0 36 32 VTop 2
WINDOW 3 -4 32 VBottom 2
SYMATTR InstName D5
SYMATTR Value 1N4007
SYMATTR Description Diode
SYMATTR Type diode
SYMBOL res 432 496 R0
SYMATTR InstName R5
SYMATTR Value 47k
SYMBOL res 544 496 R0
SYMATTR InstName R6
SYMATTR Value 47k
SYMBOL res 656 496 R0
SYMATTR InstName R7
SYMATTR Value 47k
SYMBOL res 768 496 R0
SYMATTR InstName R8
SYMATTR Value 47k
SYMBOL res 432 384 R0
SYMATTR InstName R9
SYMATTR Value 820k
SYMBOL res 544 384 R0
SYMATTR InstName R10
SYMATTR Value 820k
SYMBOL res 656 384 R0
SYMATTR InstName R11
SYMATTR Value 820k
SYMBOL res 768 384 R0
SYMATTR InstName R12
SYMATTR Value 820k
SYMBOL cap 96 512 M0
SYMATTR InstName C4
SYMATTR Value 100n
SYMBOL zener -160 672 R180
WINDOW 0 24 64 Left 2
WINDOW 3 54 42 Left 2
SYMATTR InstName D6
SYMATTR Value BZX384B4V3
SYMATTR Description Diode
SYMATTR Type diode
SYMBOL diode -832 208 M180
WINDOW 0 24 64 Left 2
WINDOW 3 24 0 Left 2
SYMATTR InstName D7
SYMATTR Value 1N4148
SYMBOL res -496 112 R90
WINDOW 0 0 56 VBottom 2
WINDOW 3 32 56 VTop 2
SYMATTR InstName R13
SYMATTR Value 1k
SYMBOL Optos\\PC817A -992 176 M0
SYMATTR InstName U2
SYMBOL res -1344 144 R270
WINDOW 0 32 56 VTop 2
WINDOW 3 0 56 VBottom 2
SYMATTR InstName R14
SYMATTR Value 10k
SYMBOL voltage -1536 448 R0
WINDOW 123 0 0 Left 0
WINDOW 39 0 0 Left 0
SYMATTR InstName V2
SYMATTR Value 3.3V
SYMBOL _PERSONAL\\relays\\rly_spst-no -832 448 R0
SYMATTR InstName U3
SYMBOL voltage -976 496 M0
WINDOW 123 0 0 Left 0
WINDOW 39 0 0 Left 0
SYMATTR InstName V4
SYMATTR Value PULSE(0 12V 15ms 1p 1p 35m 70m)
TEXT -1416 488 Left 2 !.tran 0 200m 15ms
TEXT -152 640 Left 2 ;????
