Version 4
SHEET 1 1552 948
WIRE 0 -128 -272 -128
WIRE 160 -128 80 -128
WIRE 320 -128 160 -128
WIRE 800 -128 320 -128
WIRE 1072 -128 800 -128
WIRE 160 -96 160 -128
WIRE 320 -96 320 -128
WIRE -272 -64 -272 -128
WIRE -272 64 -272 16
WIRE 160 64 160 -16
WIRE 160 64 -272 64
WIRE 640 64 160 64
WIRE 1072 64 640 64
WIRE 640 112 640 64
WIRE 800 112 800 -128
WIRE -272 128 -672 128
WIRE -304 160 -368 160
WIRE 160 160 160 64
WIRE 160 160 -208 160
WIRE 368 160 160 160
WIRE -672 192 -672 128
WIRE -304 192 -304 160
WIRE -272 192 -272 128
WIRE -208 192 -208 160
WIRE -224 288 -224 256
WIRE 320 288 320 -16
WIRE 320 288 -224 288
WIRE 368 288 320 288
WIRE -672 304 -672 272
WIRE -368 304 -368 160
WIRE -368 304 -672 304
WIRE 800 368 800 192
WIRE 1024 368 800 368
WIRE 1200 368 1104 368
WIRE 240 384 80 384
WIRE 320 384 320 288
WIRE 320 384 240 384
WIRE 368 384 320 384
WIRE 320 416 320 384
WIRE 80 448 80 384
WIRE 640 448 640 192
WIRE 1088 448 640 448
WIRE 1200 448 1168 448
WIRE 320 528 320 496
WIRE 1024 528 320 528
WIRE 1200 528 1104 528
WIRE 240 544 240 384
WIRE 320 560 320 528
WIRE 640 560 640 448
WIRE 800 560 800 368
WIRE 80 672 80 528
WIRE 240 672 240 608
WIRE 240 672 80 672
WIRE 320 672 320 640
WIRE 320 672 240 672
WIRE 640 672 640 640
WIRE 640 672 320 672
WIRE 800 672 800 640
WIRE 800 672 640 672
WIRE 800 688 800 672
FLAG 1072 -128 Y
FLAG 1072 64 X
FLAG 800 688 0
FLAG 368 384 5V
FLAG 1200 368 Y_div
FLAG 1200 448 X_div
FLAG 1200 528 5V_div
FLAG 368 288 probe2
FLAG 368 160 probe1
SYMBOL voltage -272 -80 R0
WINDOW 123 0 0 Left 0
WINDOW 39 0 0 Left 0
SYMATTR InstName V1
SYMATTR Value SINE(0 12.7V 50Hz)
SYMBOL res -16 -144 M90
WINDOW 0 0 56 VBottom 2
WINDOW 3 32 56 VTop 2
SYMATTR InstName R1
SYMATTR Value 1k5
SYMBOL res 144 -112 R0
SYMATTR InstName R2
SYMATTR Value 330
SYMBOL res 304 -112 R0
SYMATTR InstName R3
SYMATTR Value 1k5
SYMBOL res 304 544 R0
SYMATTR InstName R5
SYMATTR Value 150k
SYMBOL res 656 544 M0
SYMATTR InstName R6
SYMATTR Value 150k
SYMBOL res 816 544 M0
SYMATTR InstName R7
SYMATTR Value 150k
SYMBOL res 304 400 R0
SYMATTR InstName R9
SYMATTR Value 220k
SYMBOL res 624 96 R0
SYMATTR InstName R10
SYMATTR Value 220k
SYMBOL res 784 96 R0
SYMATTR InstName R11
SYMATTR Value 220k
SYMBOL cap 256 544 M0
SYMATTR InstName C4
SYMATTR Value 100n
SYMBOL _PERSONAL\\relays\\rly_spst-no -224 224 R90
SYMATTR InstName U3
SYMBOL voltage -672 176 R0
WINDOW 123 0 0 Left 0
WINDOW 39 0 0 Left 0
SYMATTR InstName V4
SYMATTR Value PULSE(0 12V 15ms 1p 1p 35m 70m)
SYMBOL voltage 80 432 R0
WINDOW 123 0 0 Left 0
WINDOW 39 0 0 Left 0
SYMATTR InstName V2
SYMATTR Value 5V
SYMBOL res 1008 352 M90
WINDOW 0 5 56 VBottom 2
WINDOW 3 27 56 VTop 2
SYMATTR InstName R13
SYMATTR Value 10k
SYMBOL res 1072 432 M90
WINDOW 0 5 56 VBottom 2
WINDOW 3 27 56 VTop 2
SYMATTR InstName R14
SYMATTR Value 10k
SYMBOL res 1008 512 M90
WINDOW 0 5 56 VBottom 2
WINDOW 3 27 56 VTop 2
SYMATTR InstName R15
SYMATTR Value 10k
TEXT -672 -328 Left 2 !.tran 0 1000m 100ms
TEXT -112 192 Left 2 ;shorting probes\nfor simulation only
TEXT -336 448 Left 2 ;5V DC USB supply !!\n \nPeak voltage of transformer V1 \nshould be lower than 10V  !!
TEXT 392 -288 Left 2 ;Running this simulation requires additional LTSpice components \nfrom: https://github.com/HenniePeters/LTSpice
TEXT -664 -64 Left 2 ;Octo curve tracer\n \nThe idea to start this project\ncame from ' Chris's Workbench'\nhttps://youtu.be/-ONZejEdrSc
TEXT -248 48 Left 2 ;9V RMS transformer
TEXT -64 -352 Left 2 ;Voltage on uC connections\nmay never exceed 3.3V\n \nLower R2 or adjust the \nvoltage dividers for the\nuC connections
TEXT 824 -24 Left 2 ;oscilloscope X and Y connections
TEXT 848 232 Left 2 ;Microcontroller connections for 3.3V logic
RECTANGLE Normal 144 560 -352 416 2
RECTANGLE Normal 1136 80 -672 -176 2
RECTANGLE Normal -80 0 256 -368 2
